  Page 1                                    Sat Apr 01 23:57:53 2017

  ******************************************************************
  *                           E P A N E T                          *
  *                   Hydraulic and Water Quality                  *
  *                   Analysis for Pipe Networks                   *
  *                         Version 2.00.12                        *
  ******************************************************************
  
  Analysis begun Sat Apr 01 23:57:53 2017

  WARNING: Negative pressures at 0:00:00 hrs.
  