  Page 1                                    Sat Apr 01 22:32:34 2017

  ******************************************************************
  *                           E P A N E T                          *
  *                   Hydraulic and Water Quality                  *
  *                   Analysis for Pipe Networks                   *
  *                         Version 2.00.12                        *
  ******************************************************************
  
  Analysis begun Sat Apr 01 22:32:34 2017

  WARNING: Negative pressures at 0:00:00 hrs.
  
  WARNING: Negative pressures at 0:00:01 hrs.
  
  WARNING: Negative pressures at 0:00:02 hrs.
  
  WARNING: Negative pressures at 0:00:03 hrs.
  
  WARNING: Negative pressures at 0:00:04 hrs.
  
  WARNING: Negative pressures at 0:00:05 hrs.
  
  WARNING: Negative pressures at 0:00:06 hrs.
  
  WARNING: Negative pressures at 0:00:07 hrs.
  
  WARNING: Negative pressures at 0:00:08 hrs.
  