  Page 1                                    Tue Apr 18 22:34:18 2017

  ******************************************************************
  *                           E P A N E T                          *
  *                   Hydraulic and Water Quality                  *
  *                   Analysis for Pipe Networks                   *
  *                         Version 2.00.12                        *
  ******************************************************************
  
  Analysis begun Tue Apr 18 22:34:18 2017

  WARNING: FCV 3 open but cannot deliver flow at 1:00:00 hrs.
  
  WARNING: FCV 3 open but cannot deliver flow at 2:00:00 hrs.
  
  WARNING: FCV 3 open but cannot deliver flow at 3:00:00 hrs.
  
  WARNING: FCV 3 open but cannot deliver flow at 4:00:00 hrs.
  
  WARNING: FCV 3 open but cannot deliver flow at 5:00:00 hrs.
  
  WARNING: FCV 3 open but cannot deliver flow at 6:00:00 hrs.
  
  WARNING: FCV 3 open but cannot deliver flow at 7:00:00 hrs.
  
  WARNING: FCV 3 open but cannot deliver flow at 8:00:00 hrs.
  
  WARNING: FCV 3 open but cannot deliver flow at 9:00:00 hrs.
  
  WARNING: FCV 3 open but cannot deliver flow at 10:00:00 hrs.
  
  WARNING: FCV 3 open but cannot deliver flow at 11:00:00 hrs.
  
  WARNING: FCV 3 open but cannot deliver flow at 12:00:00 hrs.
  
  WARNING: FCV 3 open but cannot deliver flow at 13:00:00 hrs.
  
  WARNING: FCV 3 open but cannot deliver flow at 14:00:00 hrs.
  
  WARNING: FCV 3 open but cannot deliver flow at 17:00:00 hrs.
  
  WARNING: FCV 3 open but cannot deliver flow at 18:00:00 hrs.
  
  WARNING: FCV 3 open but cannot deliver flow at 19:00:00 hrs.
  
  WARNING: FCV 3 open but cannot deliver flow at 20:00:00 hrs.
  
  WARNING: FCV 3 open but cannot deliver flow at 21:00:00 hrs.
  
  WARNING: FCV 3 open but cannot deliver flow at 22:00:00 hrs.
  
  WARNING: FCV 3 open but cannot deliver flow at 23:00:00 hrs.
  
  WARNING: FCV 3 open but cannot deliver flow at 24:00:00 hrs.
  
  Analysis ended Tue Apr 18 22:35:35 2017
