  Page 1                                    Wed May 03 22:53:23 2017

  ******************************************************************
  *                           E P A N E T                          *
  *                   Hydraulic and Water Quality                  *
  *                   Analysis for Pipe Networks                   *
  *                         Version 2.00.12                        *
  ******************************************************************
  
  Analysis begun Wed May 03 22:53:23 2017

  WARNING: Negative pressures at 0:24:00 hrs.
  
  Analysis ended Wed May 03 22:53:23 2017
