  Page 1                                    Wed Apr 26 11:13:39 2017

  ******************************************************************
  *                           E P A N E T                          *
  *                   Hydraulic and Water Quality                  *
  *                   Analysis for Pipe Networks                   *
  *                         Version 2.00.12                        *
  ******************************************************************
  
  Analysis begun Wed Apr 26 11:13:39 2017

  Analysis ended Wed Apr 26 11:13:39 2017
