  Page 1                                    Wed May 24 01:57:42 2017

  ******************************************************************
  *                           E P A N E T                          *
  *                   Hydraulic and Water Quality                  *
  *                   Analysis for Pipe Networks                   *
  *                         Version 2.00.12                        *
  ******************************************************************
  
  Analysis begun Wed May 24 01:57:43 2017

  Analysis ended Wed May 24 01:57:43 2017
