  Page 1                                    Wed May 17 21:47:18 2017

  ******************************************************************
  *                           E P A N E T                          *
  *                   Hydraulic and Water Quality                  *
  *                   Analysis for Pipe Networks                   *
  *                         Version 2.00.12                        *
  ******************************************************************
  
  Analysis begun Wed May 17 21:47:18 2017

  Analysis ended Wed May 17 21:48:14 2017
