  Page 1                                    Tue May 09 22:38:12 2017

  ******************************************************************
  *                           E P A N E T                          *
  *                   Hydraulic and Water Quality                  *
  *                   Analysis for Pipe Networks                   *
  *                         Version 2.00.12                        *
  ******************************************************************
  
  Analysis begun Tue May 09 22:38:12 2017

  Analysis ended Tue May 09 22:38:12 2017
